LTspice 24.0.12 for Windows
Circuit: * C:\Users\akula\OneDrive\Documents\wattwarriors\final.asc
Start Time: Fri Mar  6 10:40:38 2026
solver = Normal
Maximum thread count: 16
tnom = 27
temp = 27
method = modified trap
Direct Newton iteration for .op point succeeded.
Total elapsed time: 0.438 seconds.

